<?xml version="1.0" encoding="UTF-8"?>
<edges xmlns:xsi="http://www.w3.org/2001/XMLSchema-instance" xsi:noNamespaceSchemaLocation="http://sumo.sf.net/xsd/edges_file.xsd">
    <edge id="LC0" from="C0" to="C1" type="a"/>
    <edge id="RC0" from="C1" to="C0" type="b"/> 
</edges>
