<?xml version="1.0" encoding="UTF-8"?>
<routes>
  <vType accel="3.0" decel="6.0" id="CarA" length="5.0" minGap="2.5" maxSpeed="60.0" sigma="0.5" />
  <vType accel="1.0" decel="1.0" id="CarB" length="1.0" minGap="2.5" maxSpeed="10.0" sigma="0.5" />

  <route id="route01" edges="LC0"/>
  <route id="route02" edges="RC0"/>

  <vehicle depart="0" id="veh0" route="route01" type="CarA" color="1,0,0" /> 
  <vehicle depart="3" id="veh1" route="route02" type="CarB" color="0,0,1" />
</routes>
