<?xml version="1.0" encoding="UTF-8"?>
<nodes xmlns:xsi="http://www.w3.org/2001/XMLSchema-instance" xsi:noNamespaceSchemaLocation="http://sumo.sf.net/xsd/nodes_file.xsd">
   <node id="C0" x="0.0" y="333.0" />
   <node id="C1" x="500.00" y="333.0" /> 
</nodes>